
No compatibility mode selected!


Circuit: - op-amp

Warning: Model issue on line 7 :
  .model cmosn nmos ( level=8 version=3.1 tnom=27 tox=7.7e-9 xj=1.5e-7 nch ...
unrecognized parameter (xl) - ignored
unrecognized parameter (xw) - ignored
Warning: Model issue on line 9 :
  .model cmosp pmos ( level=8 version=3.1 tnom=27 tox=7.7e-9 xj=1.5e-7 nch ...
unrecognized parameter (xl) - ignored
unrecognized parameter (xw) - ignored
Doing analysis at TEMP = 27.000000 and TNOM = 27.000000

Warning: Pd = 0 is less than W.
Warning: Ps = 0 is less than W.
Warning: Pd = 0 is less than W.
Warning: Ps = 0 is less than W.
Warning: Pd = 0 is less than W.
Warning: Ps = 0 is less than W.
Warning: Pd = 0 is less than W.
Warning: Ps = 0 is less than W.
Warning: Pd = 0 is less than W.
Warning: Ps = 0 is less than W.
Warning: Pd = 0 is less than W.
Warning: Ps = 0 is less than W.
Warning: Pd = 0 is less than W.
Warning: Ps = 0 is less than W.
Warning: vd: no DC value, transient time 0 value used

Initial Transient Solution
--------------------------

Node                                   Voltage
----                                   -------
6                                     0.558805
2                                            0
13                                   -0.883215
7                                     0.556824
1                                            0
14                                    -1.79802
5                                         -2.5
4                                          2.5
8                                     0.819651
9                                   -0.0698384
10                                   -0.828598
11                                    -1.38052
12                                    -1.82027
15                                    -2.06242
3                                     -1.52361
16                                    -2.05955
101                                          0
100                                          0
ev2#branch                                   0
ev1#branch                                   0
vcm#branch                                   0
vd#branch                                    0
vss#branch                         0.000683129
vdd#branch                        -0.000683129


No. of Data Rows : 1080
iave                =  -5.92029e-09 from=  4.00715e-06 to=  1.40000e-05
Note: No ".plot", ".print", or ".fourier" lines; no simulations run
